<?xml version="1.0" encoding="UTF-8"?>

<!-- generated on 11/10/20 08:43:41 by Eclipse SUMO netedit Version 1.6.0
<configuration xmlns:xsi="http://www.w3.org/2001/XMLSchema-instance" xsi:noNamespaceSchemaLocation="http://sumo.dlr.de/xsd/netconvertConfiguration.xsd">

    <output>
        <output-file value="C:\Users\Rachiken\Desktop\single_route.net.xml"/>
    </output>

    <processing>
        <offset.disable-normalization value="true"/>
    </processing>

    <junctions>
        <no-turnarounds value="true"/>
    </junctions>

    <netedit>
        <route-files value="C:\Users\Rachiken\Desktop\single_route.rou.xml"/>
    </netedit>

    <report>
        <aggregate-warnings value="5"/>
    </report>

</configuration>
-->

<net version="1.6" junctionCornerDetail="5" limitTurnSpeed="5.50" xmlns:xsi="http://www.w3.org/2001/XMLSchema-instance" xsi:noNamespaceSchemaLocation="http://sumo.dlr.de/xsd/net_file.xsd">

    <location netOffset="0.00,0.00" convBoundary="-100.00,50.00,0.00,50.00" origBoundary="10000000000.00,10000000000.00,-10000000000.00,-10000000000.00" projParameter="!"/>

    <edge id=":gneJ1_0" function="internal">
        <lane id=":gneJ1_0_0" index="0" speed="13.89" length="0.10" shape="-50.00,48.40 -50.00,48.40"/>
    </edge>

    <edge id="gneE0" from="gneJ0" to="gneJ1" priority="-1">
        <lane id="gneE0_0" index="0" speed="13.89" length="50.00" shape="-100.00,48.40 -50.00,48.40"/>
    </edge>
    <edge id="gneE1" from="gneJ1" to="gneJ2" priority="-1">
        <lane id="gneE1_0" index="0" speed="13.89" length="50.00" shape="-50.00,48.40 0.00,48.40"/>
    </edge>

    <tlLogic id="gneJ1" type="static" programID="0" offset="0">
        <phase duration="50" state="G"/>
        <phase duration="50" state="y"/>
        <phase duration="50" state="r"/>
    </tlLogic>

    <junction id="gneJ0" type="dead_end" x="-100.00" y="50.00" incLanes="" intLanes="" shape="-100.00,50.00 -100.00,46.80"/>
    <junction id="gneJ1" type="traffic_light" x="-50.00" y="50.00" incLanes="gneE0_0" intLanes=":gneJ1_0_0" shape="-50.00,50.00 -50.00,46.80 -50.00,50.00">
        <request index="0" response="0" foes="0" cont="0"/>
    </junction>
    <junction id="gneJ2" type="dead_end" x="0.00" y="50.00" incLanes="gneE1_0" intLanes="" shape="0.00,46.80 0.00,50.00"/>

    <connection from="gneE0" to="gneE1" fromLane="0" toLane="0" via=":gneJ1_0_0" tl="gneJ1" linkIndex="0" dir="s" state="O"/>

    <connection from=":gneJ1_0" to="gneE1" fromLane="0" toLane="0" dir="s" state="M"/>

</net>
